raw_data/Lines.dss
new Line.877cf333-40f4-46c9-9655-63bdf2cc6fea Bus1=5ff9a8dc-e808-48b4-9a51-b4ef0c8aae7d.1.2.3 Bus2=51e400dd-7c7c-4f5a-89da-c0f4ea619a3a.1.2.3 LineCode=3p_ug_al_3_3 Length=0.14389749978763583 Phases=3 Units=m
new Line.fad574ba-14cc-4b1b-b291-635899108e2d Bus1=ef7e1cf1-f33b-4256-8a55-ad94fbc7a080.1.2.3 Bus2=64aced96-2084-4e76-adcb-c62b326a9160.1.2.3 LineCode=3p_oh_al_acsr_4/0_penguin_3 Length=41.98333027779898 Phases=3 Units=m
new Line.8d207078-a9b5-4996-b21c-80f75776f31f Bus1=93a748b0-12e1-46b5-ae71-8db863f5527e.1.2.3 Bus2=a16ea384-8006-4c87-8506-1c3e7fcd55e9.1.2.3 LineCode=3p_oh_al_acsr_4/0_penguin_3 Length=41.23064959066602 Phases=3 Units=m
new Line.2f67c9a5-182f-4870-8fb8-8b22891be84b Bus1=38360e68-8bfd-42b0-8464-b194c6e1dc1d.1.2.3 Bus2=cf58f485-69e7-4aa0-8336-7281d0779549.1.2.3 LineCode=3p_oh_al_acsr_4/0_penguin_3 Length=49.9080647673389 Phases=3 Units=m
new Line.f46d91f5-77d3-430c-a156-2df10ad4cb7e Bus1=cf58f485-69e7-4aa0-8336-7281d0779549.1.2.3 Bus2=aeadcd37-355f-4dd5-b765-7f68478228a0.1.2.3 LineCode=3p_oh_al_acsr_4/0_penguin_3 Length=49.908061077541646 Phases=3 Units=m
new Line.2be4c7cf-8c14-497a-8037-03c9843fd027 Bus1=64aced96-2084-4e76-adcb-c62b326a9160.1.2.3 Bus2=38360e68-8bfd-42b0-8464-b194c6e1dc1d.1.2.3 LineCode=3p_oh_al_acsr_4/0_penguin_3 Length=41.23064959066602 Phases=3 Units=m
new Line.c8d01df3-cec2-4738-b522-5dc5d94df8a7 Bus1=64aced96-2084-4e76-adcb-c62b326a9160.1.2.3 Bus2=93a748b0-12e1-46b5-ae71-8db863f5527e.1.2.3 LineCode=3p_oh_al_acsr_4/0_penguin_3 Length=41.23064959066602 Phases=3 Units=m
new Line.bb28a48b-04a2-4e4a-a0cf-138c9976f6a6 Bus1=aeadcd37-355f-4dd5-b765-7f68478228a0.1.2.3 Bus2=9198bd4c-8e28-4ef6-8649-f795662f7e47.1.2.3 LineCode=3p_oh_al_acsr_4/0_penguin_3 Length=41.231095491384714 Phases=3 Units=m
new Line.6b5c0779-d737-4b3f-a97b-805fa9e95787 Bus1=ae567475-3545-497c-be4e-e6840d81ed46.1.2.3 Bus2=f7166f81-0227-4186-aae6-5131a81df5a3.1.2.3 LineCode=3p_ug_al_3_3 Length=49.9080756083478 Phases=3 Units=m
new Line.639c314a-5a45-4a47-8e96-d664c7f0a01f Bus1=d667039e-ce84-40cc-ab17-3f2aaf2a92e1.1.2.3 Bus2=ae567475-3545-497c-be4e-e6840d81ed46.1.2.3 LineCode=3p_ug_al_3_3 Length=41.23021761376319 Phases=3 Units=m
new Line.142514a6-f12e-4538-ac0b-7a0ca62c1851 Bus1=d667039e-ce84-40cc-ab17-3f2aaf2a92e1.1.2.3 Bus2=b26a4225-f708-485a-9e6b-7e32e39685b8.1.2.3 LineCode=3p_ug_al_3_3 Length=49.90807191570487 Phases=3 Units=m
new Line.4e852749-d578-48ad-88a3-eb5eb06f1a18 Bus1=c06e8b04-406c-4505-9a7d-caa26d521809.1.2.3 Bus2=d667039e-ce84-40cc-ab17-3f2aaf2a92e1.1.2.3 LineCode=3p_ug_al_3_3 Length=10.26610801161691 Phases=3 Units=m
new Line.8f6916fe-6204-487f-a56d-2f7828f98688 Bus1=9037afbd-26b1-473f-ba3f-1eb50330816e.1.2.3 Bus2=e5130a20-ee25-47f4-b59a-5f8ae412150f.1.2.3 LineCode=3p_ug_al_3_3 Length=49.90807015056011 Phases=3 Units=m
new Line.a660fc87-1fa6-440d-b920-682dff131a81 Bus1=9037afbd-26b1-473f-ba3f-1eb50330816e.1.2.3 Bus2=328d9cba-e71e-4b41-8d16-17c65132a7be.1.2.3 LineCode=3p_ug_al_3_3 Length=41.230324399652076 Phases=3 Units=m
new Line.995becb8-2244-4164-9ecc-cf3bcceb3965 Bus1=18df96d8-a15c-4473-95ae-8731c654a42a.1.2.3 Bus2=9037afbd-26b1-473f-ba3f-1eb50330816e.1.2.3 LineCode=3p_ug_al_3_3 Length=18.584382573801786 Phases=3 Units=m
new Line.543d91bb-77b4-44f9-9967-70f3174a633c Bus1=5ad8d989-5e23-4e96-96cd-4b3ef77cb000.1.2.3 Bus2=0754658c-cea4-4c89-bfea-cc44efdade3f.1.2.3 LineCode=3p_oh_code_3_1 Length=41.231937507995106 Phases=3 Units=m
new Line.27672613-bdef-4ad9-b8b4-7ae45d4227f0 Bus1=f02a51c5-0487-49fe-a53c-19f24b979cad.1.2.3 Bus2=641fc047-02cc-4bd0-ac73-5d4d6561c687.1.2.3 LineCode=3p_oh_code_3_1 Length=41.23171456852894 Phases=3 Units=m
new Line.7d3d12e5-0d25-4acf-8fe8-91355a1bf7b0 Bus1=8d61ce66-3ce3-48f6-8819-7aacd2c1c768.1.2.3 Bus2=e1fc24b3-1f74-44a3-9f8e-11bca00319f0.1.2.3 LineCode=3p_oh_code_3_1 Length=28.644225525949857 Phases=3 Units=m
new Line.7c0ce3af-e06b-4bae-8e8b-8502cfc07e34 Bus1=e1fc24b3-1f74-44a3-9f8e-11bca00319f0.1.2.3 Bus2=f02a51c5-0487-49fe-a53c-19f24b979cad.1.2.3 LineCode=3p_oh_code_3_1 Length=41.23171456852894 Phases=3 Units=m
new Line.6d30748c-2539-4f3e-bed6-1143ff216d61 Bus1=e1fc24b3-1f74-44a3-9f8e-11bca00319f0.1.2.3 Bus2=5ad8d989-5e23-4e96-96cd-4b3ef77cb000.1.2.3 LineCode=3p_oh_code_3_1 Length=49.908047139435986 Phases=3 Units=m
new Line.7cb60d0b-9f3e-4988-8442-fa38d74db0b7 Bus1=e1fc24b3-1f74-44a3-9f8e-11bca00319f0.1.2.3 Bus2=3e990ed5-8add-498e-b152-f419eef4e798.1.2.3 LineCode=3p_oh_code_3_1 Length=49.90805082955702 Phases=3 Units=m
new Line.95b53676-22a3-4601-a3e4-087da71500a5 Bus1=3e990ed5-8add-498e-b152-f419eef4e798.1.2.3 Bus2=6a9640e9-3a56-412d-b2b0-6dce205c554b.1.2.3 LineCode=3p_oh_code_3_1 Length=49.9080545193315 Phases=3 Units=m
new Line.9774173c-ed81-49a5-b4a6-4d91eff081ab Bus1=19d1eb19-8c54-4ed6-96d5-f236737eb4a8.1.2.3 Bus2=779d9f78-74a0-4a10-bea4-0ffcd03ea93d.1.2.3 LineCode=3p_oh_al_acsr_4/0_penguin_3 Length=15.267223585609258 Phases=3 Units=m
new Line.1373d0a1-6d79-4c5e-94c2-2fecf7ee1fb8 Bus1=779d9f78-74a0-4a10-bea4-0ffcd03ea93d.1.2.3 Bus2=b9d3e2b6-9c11-45aa-ac31-6450e3001efa.1.2.3 LineCode=3p_oh_al_acsr_4/0_penguin_3 Length=49.90808281784171 Phases=3 Units=m
new Line.f2073ea4-3733-44d9-bf89-b79830e402fe Bus1=fde6c6f0-66f1-43ee-94bb-65c3f330bd74.1.2.3 Bus2=05c6d8b1-ea32-44e1-85c1-3d5def65086a.1.2.3 LineCode=3p_ug_al_3_3 Length=4.7637214243107415 Phases=3 Units=m
new Line.8079fe8a-7429-4b08-8ee1-1c1b05b58685 Bus1=29399485-4f29-4710-af7f-6791e8fc381b.1.2.3 Bus2=900b5abc-ec7f-4ae4-8ff5-a5ed8b86eced.1.2.3 LineCode=3p_ug_al_3_3 Length=49.908075829651736 Phases=3 Units=m
new Line.73c34bad-afb1-400b-a551-dc1a34eaf424 Bus1=1e49a5a7-cec4-415a-8ea3-33f157d3592a.1.2.3 Bus2=29399485-4f29-4710-af7f-6791e8fc381b.1.2.3 LineCode=3p_ug_al_3_3 Length=16.936616594052662 Phases=3 Units=m
new Line.16bf68e7-f68d-4877-9981-28fa35b7c727 Bus1=88ceb0dc-ab48-4b87-a001-0a6b423266e9.1.2.3 Bus2=d764f7e6-4c13-40b0-a282-93fc2ac856a3.1.2.3 LineCode=3p_oh_code_3_1 Length=41.22947348910344 Phases=3 Units=m
new Line.9fd5207b-793b-4c7a-bc65-882598034234 Bus1=7f6c8c4f-610f-48c1-8ed5-0ea509defebb.1.2.3 Bus2=cd609c28-61d1-4d7f-8611-1286eb18ce70.1.2.3 LineCode=3p_oh_code_3_1 Length=41.229919416692404 Phases=3 Units=m
new Line.a6bbad24-6a86-4a2d-a54c-dd39a30869eb Bus1=cd609c28-61d1-4d7f-8611-1286eb18ce70.1.2.3 Bus2=c3f2cf9c-f9a2-4415-8fac-a6aa9ccdd5bd.1.2.3 LineCode=3p_oh_code_3_1 Length=41.229919416692404 Phases=3 Units=m
new Line.b5b5ca3e-eecf-413f-83c9-27544da3e20d Bus1=2f15e681-d391-49f9-ac6c-e9471ca7e957.1.2.3 Bus2=7f6c8c4f-610f-48c1-8ed5-0ea509defebb.1.2.3 LineCode=3p_oh_code_3_1 Length=49.90808054342511 Phases=3 Units=m
new Line.3abccd97-ab4d-47d1-8a51-d16af7e6fe66 Bus1=55b8b78c-31cd-4574-90aa-bf37208faea1.1.2.3 Bus2=851c3c74-63d9-4b68-8756-89bd42e7d788.1.2.3 LineCode=3p_oh_code_3_1 Length=18.093441414428582 Phases=3 Units=m
new Line.5c6c2677-4c1e-44f8-bebd-0f49e5808309 Bus1=851c3c74-63d9-4b68-8756-89bd42e7d788.1.2.3 Bus2=2f15e681-d391-49f9-ac6c-e9471ca7e957.1.2.3 LineCode=3p_oh_code_3_1 Length=41.22969645417138 Phases=3 Units=m
new Line.df41d968-2746-485e-96cf-1d17a2df7a72 Bus1=851c3c74-63d9-4b68-8756-89bd42e7d788.1.2.3 Bus2=88ceb0dc-ab48-4b87-a001-0a6b423266e9.1.2.3 LineCode=3p_oh_code_3_1 Length=49.90808423361243 Phases=3 Units=m
new Line.38f111d3-0096-40db-b1de-82b04f194979 Bus1=481b4156-086d-4718-8c63-dc41bfd4f4c9.1.2.3 Bus2=733b5182-ae82-43e4-8e87-502cf52aff85.1.2.3 LineCode=3p_oh_code_3_1 Length=41.230267122714054 Phases=3 Units=m
new Line.03eaea75-4430-40f7-9c0b-30140a7bb01c Bus1=ce68466a-3c9d-4b70-984d-39c2d4c83dfc.1.2.3 Bus2=481b4156-086d-4718-8c63-dc41bfd4f4c9.1.2.3 LineCode=3p_oh_code_3_1 Length=41.230267122714054 Phases=3 Units=m
new Line.05207cae-b009-4ad3-9e6e-ec3f125efcb5 Bus1=ce68466a-3c9d-4b70-984d-39c2d4c83dfc.1.2.3 Bus2=62926cbf-a806-462a-874d-2491ae8f4891.1.2.3 LineCode=3p_oh_code_3_1 Length=41.230267122714054 Phases=3 Units=m
new Line.ae22a455-1da6-4bef-af4d-fbbf03a1afb6 Bus1=79b5b874-4748-484a-9185-e5d5b14abc7d.1.2.3 Bus2=6d91fa46-2def-41ac-a44e-0ec1ed25e35a.1.2.3 LineCode=3p_oh_code_3_1 Length=17.57672868578974 Phases=3 Units=m
new Line.74cc104d-a5ee-449b-a652-e1d3180c2fdb Bus1=6d91fa46-2def-41ac-a44e-0ec1ed25e35a.1.2.3 Bus2=ce68466a-3c9d-4b70-984d-39c2d4c83dfc.1.2.3 LineCode=3p_oh_code_3_1 Length=49.9080747887114 Phases=3 Units=m
new Line.e8af25d7-6d0d-4516-ba5c-675662dbfc78 Bus1=6d91fa46-2def-41ac-a44e-0ec1ed25e35a.1.2.3 Bus2=38ddcca1-5a42-4440-b875-c6aab7f58750.1.2.3 LineCode=3p_oh_code_3_1 Length=49.908078478534215 Phases=3 Units=m
new Line.16ff8291-45cd-44e5-9c6d-9d408102ce4d Bus1=6d91fa46-2def-41ac-a44e-0ec1ed25e35a.1.2.3 Bus2=d941df2e-20f2-4710-ba05-61ee4d06caa4.1.2.3 LineCode=3p_oh_code_3_1 Length=41.23004416416504 Phases=3 Units=m
new Line.c59dd8c6-8edb-40b7-bfa7-f57acaa63506 Bus1=84400613-fdf5-465c-bb59-25bccc63e964.1.2.3 Bus2=be03ea98-df62-4721-9c08-8e87b6970974.1.2.3 LineCode=3p_ug_al_3 Length=41.229491429341195 Phases=3 Units=m
new Line.d9319e51-11c2-4efa-86cd-2936e7bb6017 Bus1=dcde0bfe-3a3d-4ff8-8a75-7cc11b4d34a1.1.2.3 Bus2=f7bfc679-f893-49df-a34b-c7f2d8975c85.1.2.3 LineCode=3p_ug_al_3 Length=24.900951104987495 Phases=3 Units=m
new Line.a2aec234-98ea-4d0c-9ed3-e0f242b47ee6 Bus1=f7bfc679-f893-49df-a34b-c7f2d8975c85.1.2.3 Bus2=84400613-fdf5-465c-bb59-25bccc63e964.1.2.3 LineCode=3p_ug_al_3 Length=49.908087626655586 Phases=3 Units=m
new Line.68606f15-d049-4eeb-a2e1-79b33fef3434 Bus1=f7bfc679-f893-49df-a34b-c7f2d8975c85.1.2.3 Bus2=f65ebc47-745c-47ea-88a7-abd23fb2fdfc.1.2.3 LineCode=3p_ug_al_3 Length=49.90809131756433 Phases=3 Units=m
new Line.ad40a9ed-6cb6-4692-92c1-64f2cb71e310 Bus1=127a487f-f8e5-49e2-8b09-bb7318466844.1.2.3 Bus2=29160497-d557-46ef-953b-030985e86c82.1.2.3 LineCode=3p_ug_al_3_3 Length=41.2308342380094 Phases=3 Units=m
new Line.285500fa-9774-4e71-95cc-e1ca0e31a642 Bus1=127a487f-f8e5-49e2-8b09-bb7318466844.1.2.3 Bus2=21a5c737-9853-4b91-9264-5bba7071c44a.1.2.3 LineCode=3p_ug_al_3_3 Length=41.2308342380094 Phases=3 Units=m
new Line.93f75f61-305c-4435-b79c-899617e10783 Bus1=ff4e789f-8cc0-412d-801f-775a88fd5d87.1.2.3 Bus2=127a487f-f8e5-49e2-8b09-bb7318466844.1.2.3 LineCode=3p_ug_al_3_3 Length=10.803282410793758 Phases=3 Units=m
new Line.4392d5f7-fd3b-4f94-8193-993cb646d955 Bus1=781b2dc1-d43f-410d-8d73-5d054884a778.1.2.3 Bus2=b60382ca-98a1-4b75-b523-efddb361e17c.1.2.3 LineCode=3p_oh_al_acsr_4/0_penguin_3 Length=49.90804235418133 Phases=3 Units=m
new Line.1e0ebc6d-a713-4545-8cf5-e8f2b4d33651 Bus1=b60382ca-98a1-4b75-b523-efddb361e17c.1.2.3 Bus2=68b90fa4-32a9-48f6-822a-5c14e0262d7a.1.2.3 LineCode=3p_oh_al_acsr_4/0_penguin_3 Length=49.908038664430336 Phases=3 Units=m
new Line.448083e7-6b24-4a05-9ed5-0993fdfbaf48 Bus1=4cb1e7c3-c716-481d-a9cc-7b522f1ad926.1.2.3 Bus2=c9b6ab2c-36b4-4ee9-bc4e-1a63cb1590b7.1.2.3 LineCode=3p_oh_al_acsr_4/0_penguin_3 Length=15.70137517225055 Phases=3 Units=m
new Line.7cf6b07c-a810-4d6c-940a-775787c801c6 Bus1=6239cbb1-bf4c-471e-be1f-890a778af58e.1.2.3 Bus2=e33a7c36-8f7f-4bc7-b053-54f55c890e5e.1.2.3 LineCode=3p_oh_al_acsr_4/0_penguin_3 Length=49.90805342595003 Phases=3 Units=m
new Line.67e20689-acac-4cd8-b011-396f41d4bc6a Bus1=c9b6ab2c-36b4-4ee9-bc4e-1a63cb1590b7.1.2.3 Bus2=1e683ae3-a73e-4457-a587-085dbb419fa5.1.2.3 LineCode=3p_oh_al_acsr_4/0_penguin_3 Length=41.23178071677815 Phases=3 Units=m
new Line.31c2a486-d74a-48bc-a35a-7c6682f5e999 Bus1=c9b6ab2c-36b4-4ee9-bc4e-1a63cb1590b7.1.2.3 Bus2=781b2dc1-d43f-410d-8d73-5d054884a778.1.2.3 LineCode=3p_oh_al_acsr_4/0_penguin_3 Length=49.90804604535311 Phases=3 Units=m
new Line.7dbd5dcb-e729-49f8-a2bc-1bc375898270 Bus1=c9b6ab2c-36b4-4ee9-bc4e-1a63cb1590b7.1.2.3 Bus2=7250aede-c77c-468f-b25a-45b6a36d4472.1.2.3 LineCode=3p_oh_al_acsr_4/0_penguin_3 Length=41.23178071677815 Phases=3 Units=m
new Line.490d74f7-4ea7-4bba-a234-3b67dc6a0496 Bus1=c9b6ab2c-36b4-4ee9-bc4e-1a63cb1590b7.1.2.3 Bus2=6239cbb1-bf4c-471e-be1f-890a778af58e.1.2.3 LineCode=3p_oh_al_acsr_4/0_penguin_3 Length=49.90804973405753 Phases=3 Units=m
new Line.a2418e0e-a8b9-44f0-a614-9dc5460c782f Bus1=7250aede-c77c-468f-b25a-45b6a36d4472.1.2.3 Bus2=bd90ac5e-9f30-4582-9f5c-54eca933fcdc.1.2.3 LineCode=3p_oh_al_acsr_4/0_penguin_3 Length=41.23178071677815 Phases=3 Units=m
new Line.6157ed28-3d6b-4add-bbf3-ec2294d4d5f3 Bus1=3d6b4f5c-c488-449a-8284-c2d6435de91a.1.2.3 Bus2=0cb1a779-c071-4340-ad2c-7c68bdf0a47a.1.2.3 LineCode=3p_oh_al_acsr_477kcmil_hawk_3 Length=49.90804841008608 Phases=3 Units=m
new Line.1811e0cc-5188-4f9c-9ccc-f37c7e3f6d09 Bus1=3d69988e-d438-41d1-8509-a035e81e2f4e.1.2.3 Bus2=981ffc73-311c-4f88-aac2-78db9d7f11af.1.2.3 LineCode=3p_oh_al_acsr_477kcmil_hawk_3 Length=19.550277253720747 Phases=3 Units=m
new Line.c6ded811-a095-42dc-a5c9-88865016b25f Bus1=981ffc73-311c-4f88-aac2-78db9d7f11af.1.2.3 Bus2=3d6b4f5c-c488-449a-8284-c2d6435de91a.1.2.3 LineCode=3p_oh_al_acsr_477kcmil_hawk_3 Length=41.23163780305231 Phases=3 Units=m
new Line.04c0118b-d568-409c-bbf4-4ec2b0e88383 Bus1=981ffc73-311c-4f88-aac2-78db9d7f11af.1.2.3 Bus2=bae1a80a-5d8e-4d74-83d6-0a98d65b0a47.1.2.3 LineCode=3p_oh_al_acsr_477kcmil_hawk_3 Length=49.90805210091681 Phases=3 Units=m
new Line.98af8dcb-f72c-4574-842b-a3b43a14269f Bus1=437ebea5-9e6b-478d-a29c-246fb6dfe631.1.2.3 Bus2=744ce767-07e3-40b1-bb84-8555722e3128.1.2.3 LineCode=3p_oh_al_acsr_477kcmil_hawk_3 Length=41.23119191472483 Phases=3 Units=m
new Line.da85670c-1c13-40fb-81be-5a1beb924cc5 Bus1=bae1a80a-5d8e-4d74-83d6-0a98d65b0a47.1.2.3 Bus2=437ebea5-9e6b-478d-a29c-246fb6dfe631.1.2.3 LineCode=3p_oh_al_acsr_477kcmil_hawk_3 Length=49.90805578927882 Phases=3 Units=m
new Line.1b5e46c5-9acc-43c0-8913-9f95712a2b97 Bus1=0cb1a779-c071-4340-ad2c-7c68bdf0a47a.1.2.3 Bus2=8fae7822-2811-4dc2-9d00-91a9d534c978.1.2.3 LineCode=3p_oh_al_acsr_477kcmil_hawk_3 Length=49.90804471996919 Phases=3 Units=m
new Line.d95c8201-34f5-4b21-9dda-4292e19c4252 Bus1=953eec14-bc83-47d7-8c8e-bfc34fb0b9c5.1.2.3 Bus2=5a20152a-ce44-46d8-812f-5073827bab0f.1.2.3 LineCode=3p_ug_al_3_3 Length=105.12244098355718 Phases=3 Units=m
new Line.33d623cf-6bcc-42cf-907b-ee109caa8ed2 Bus1=953eec14-bc83-47d7-8c8e-bfc34fb0b9c5.1.2.3 Bus2=79b5b874-4748-484a-9185-e5d5b14abc7d_ht.1.2.3 LineCode=3p_ug_al_3_3 Length=0.14389370343055002 Phases=3 Units=m
new Line.2b697ae9-5fe4-4e04-995b-70145d61d5b8 Bus1=902a2eb2-e22a-4f2e-9080-a017c7b9ea32.1.2.3 Bus2=c06e8b04-406c-4505-9a7d-caa26d521809_ht.1.2.3 LineCode=3p_ug_al_3_3 Length=0.14389387679860974 Phases=3 Units=m
new Line.537c861c-68b1-4a86-9a50-ffdd5f0582da Bus1=55c0c277-83a0-46cb-b2cd-ea6b02b4a044.1.2.3 Bus2=5ff9a8dc-e808-48b4-9a51-b4ef0c8aae7d_ht.1.2.3 LineCode=3p_ug_al_3_3 Length=0.14389749978763583 Phases=3 Units=m
new Line.348c2f2f-e9d5-481e-a391-ba42edc91849 Bus1=d65c1dd3-bd70-4490-9bc9-5c2da8f7e82c.1.2.3 Bus2=486c4420-a93c-4793-8fee-92bb4e3f6c8b.1.2.3 LineCode=3p_ug_al_3_3 Length=149.99919585340805 Phases=3 Units=m
new Line.9b2473d7-6414-403a-a6d8-d7f82477dcb3 Bus1=302675215.1.2.3 Bus2=113984088.1.2.3 LineCode=3p_ug_al_3_3 Length=36.47038190948816 Phases=3 Units=m
new Line.2f772b75-c2c6-43c3-a744-4a4b4cb4f8e9 Bus1=302675215.1.2.3 Bus2=f078b90d-1b3b-4f3c-9ce8-7191e1c0f8a1.1.2.3 LineCode=3p_ug_al_3_3 Length=39.102536275220025 Phases=3 Units=m
new Line.6e9b092f-daca-4d80-b421-2a7732e8b80b Bus1=296569828.1.2.3 Bus2=295498746.1.2.3 LineCode=3p_ug_al_3_3 Length=139.22887627571012 Phases=3 Units=m
new Line.23d70553-1ab7-41a0-a638-3fbcdda1be20 Bus1=296569828.1.2.3 Bus2=67086850-524a-4c64-b12d-a31a9e3279e5.1.2.3 LineCode=3p_ug_al_3_3 Length=143.83674120149982 Phases=3 Units=m
new Line.455781f5-acf5-4fb2-8695-c3e513af692d Bus1=296569828.1.2.3 Bus2=d18f1899-f1d2-4178-b332-9b2c7518ff1c.1.2.3 LineCode=3p_ug_al_3_3 Length=147.23203976353346 Phases=3 Units=m
new Line.ae7b102f-1ea8-4edc-83b4-ffe4123dc43e Bus1=decc3e5b-e24a-4078-97d3-d34b50fb5fc8.1.2.3 Bus2=302675215.1.2.3 LineCode=3p_ug_al_3_3 Length=0.9999991611179676 Phases=3 Units=m
new Line.9e69cf87-d045-4e37-a233-66d7598247d9 Bus1=de10576a-aa0f-4038-996c-4d5448b524f5.1.2.3 Bus2=19d1eb19-8c54-4ed6-96d5-f236737eb4a8_ht.1.2.3 LineCode=3p_ug_al_3_3 Length=0.14389301134900767 Phases=3 Units=m
new Line.fed73bec-b009-48dd-a82e-4ed6a45f1d53 Bus1=0d723b81-d3cc-4b5e-9604-b94e1579d6da.1.2.3 Bus2=953eec14-bc83-47d7-8c8e-bfc34fb0b9c5.1.2.3 LineCode=3p_ug_al_3_3 Length=51.5409445621833 Phases=3 Units=m
new Line.2816de66-b63f-4529-94fc-768372c697d6 Bus1=e2b17ec5-7234-4634-99f3-13b33e8ee391.1.2.3 Bus2=0d723b81-d3cc-4b5e-9604-b94e1579d6da.1.2.3 LineCode=3p_ug_al_3_3 Length=150.00000448327205 Phases=3 Units=m
new Line.45a2dfad-6a05-4b83-8bea-4e831f07b2ed Bus1=ad21eec3-b245-4f80-a3e7-f2e2f56b33e5.1.2.3 Bus2=ef7e1cf1-f33b-4256-8a55-ad94fbc7a080_ht.1.2.3 LineCode=3p_ug_al_3_3 Length=0.14389469271332317 Phases=3 Units=m
new Line.caef3b81-a1b3-4f5b-b574-47ef1a259cc3 Bus1=5a20152a-ce44-46d8-812f-5073827bab0f.1.2.3 Bus2=35affd0b-0310-47a0-852f-21aafab0bb12.1.2.3 LineCode=3p_ug_al_3_3 Length=99.90215540385896 Phases=3 Units=m
new Line.04416961-b233-4746-9215-ddf70fdfec3e Bus1=5a20152a-ce44-46d8-812f-5073827bab0f.1.2.3 Bus2=55b8b78c-31cd-4574-90aa-bf37208faea1_ht.1.2.3 LineCode=3p_ug_al_3_3 Length=0.1438932168306767 Phases=3 Units=m
new Line.df917a3e-886a-47f6-9e42-6be3a5e8bab5 Bus1=129f96e7-ea7e-4cd5-bdb6-d50f6f7bf437.1.2.3 Bus2=19bd08d3-a3aa-4eb9-95a0-141db869b8b8.1.2.3 LineCode=3p_ug_al_3_3 Length=139.43412972426478 Phases=3 Units=m
new Line.cf657060-0ee0-4884-9ed0-c3fce59ab4cc Bus1=113913040.1.2.3 Bus2=55c0c277-83a0-46cb-b2cd-ea6b02b4a044.1.2.3 LineCode=3p_ug_al_3_3 Length=40.71217142661056 Phases=3 Units=m
new Line.00e7bc42-6f48-4d86-a8f8-ec99f52aa461 Bus1=113913040.1.2.3 Bus2=11a8480b-1da6-49f2-8040-454036c30482.1.2.3 LineCode=3p_ug_al_3_3 Length=121.62757144613774 Phases=3 Units=m
new Line.f11f099c-7dbb-4db5-a904-bb9c63a46a5c Bus1=dae7b755-4e43-4d99-abba-eebd2682834e.1.2.3 Bus2=7cb66b0f-7d12-40c3-9ac3-48e0ffa241d4.1.2.3 LineCode=3p_ug_al_3_3 Length=150.0001515186486 Phases=3 Units=m
new Line.05ab861a-9a0f-4dcf-8f05-4dc8e847d936 Bus1=9114e66f-a106-462e-926c-48a6fe17b5ce.1.2.3 Bus2=9e1a569f-5918-48ff-84d5-50a341fb5b20.1.2.3 LineCode=3p_ug_al_3_3 Length=120.4769406959761 Phases=3 Units=m
new Line.3251c5f3-d1ac-4207-9348-16f754d63e16 Bus1=9114e66f-a106-462e-926c-48a6fe17b5ce.1.2.3 Bus2=e2b17ec5-7234-4634-99f3-13b33e8ee391.1.2.3 LineCode=3p_ug_al_3_3 Length=1.0000001206101419 Phases=3 Units=m
new Line.7f8fbeda-d441-47aa-9571-8c4526ad4c3f Bus1=9114e66f-a106-462e-926c-48a6fe17b5ce.1.2.3 Bus2=dcde0bfe-3a3d-4ff8-8a75-7cc11b4d34a1_ht.1.2.3 LineCode=3p_ug_al_3_3 Length=0.14389244880099855 Phases=3 Units=m
new Line.39e5bb8c-18df-48d3-a613-bf407e285d6b Bus1=4ed9d518-66f4-428c-884e-b116c0a94342.1.2.3 Bus2=129f96e7-ea7e-4cd5-bdb6-d50f6f7bf437.1.2.3 LineCode=3p_ug_al_3_3 Length=150.00036671433506 Phases=3 Units=m
new Line.da10c1d6-6a6f-49d0-9c76-2e47cadb21b1 Bus1=24ab4116-d257-41b1-960b-481ced9684f1.1.2.3 Bus2=296569828.1.2.3 LineCode=3p_ug_al_3_3 Length=124.36141001472879 Phases=3 Units=m
new Line.01151c85-b3c9-4bd4-bb37-8c683c6984da Bus1=24ab4116-d257-41b1-960b-481ced9684f1.1.2.3 Bus2=3d69988e-d438-41d1-8509-a035e81e2f4e_ht.1.2.3 LineCode=3p_ug_al_3_3 Length=0.1438958602881815 Phases=3 Units=m
new Line.13e9f1f6-f1e4-4b84-8eb3-a2493d9cfa01 Bus1=d18f1899-f1d2-4178-b332-9b2c7518ff1c.1.2.3 Bus2=4cb1e7c3-c716-481d-a9cc-7b522f1ad926_ht.1.2.3 LineCode=3p_ug_al_3_3 Length=0.14389609949146287 Phases=3 Units=m
new Line.a4414604-1e55-4c73-bc10-c21907289942 Bus1=11a8480b-1da6-49f2-8040-454036c30482.1.2.3 Bus2=decc3e5b-e24a-4078-97d3-d34b50fb5fc8.1.2.3 LineCode=3p_ug_al_3_3 Length=149.99994420174443 Phases=3 Units=m
new Line.679038c7-f667-4a40-8533-7dba1abfa81a Bus1=35affd0b-0310-47a0-852f-21aafab0bb12.1.2.3 Bus2=1e49a5a7-cec4-415a-8ea3-33f157d3592a_ht.1.2.3 LineCode=3p_ug_al_3_3 Length=0.1438936087623115 Phases=3 Units=m
new Line.a9038b6f-83e5-4db1-83dd-0b3bb7e9b269 Bus1=113984088.1.2.3 Bus2=ad21eec3-b245-4f80-a3e7-f2e2f56b33e5.1.2.3 LineCode=3p_ug_al_3_3 Length=129.33193673558557 Phases=3 Units=m
new Line.2aea38ca-fc4d-4eec-bc7d-c5d2152293d3 Bus1=113984088.1.2.3 Bus2=4ed9d518-66f4-428c-884e-b116c0a94342.1.2.3 LineCode=3p_ug_al_3_3 Length=1.0000051110734034 Phases=3 Units=m
new Line.21604686-f982-4c16-8a23-104a35c5ccc6 Bus1=7cb66b0f-7d12-40c3-9ac3-48e0ffa241d4.1.2.3 Bus2=a8200e82-da3c-4729-ae6d-d48081aa6c3a.1.2.3 LineCode=3p_ug_al_3_3 Length=149.9999433114957 Phases=3 Units=m
new Line.9b8f8ff3-5504-467d-a68d-f196e246afa0 Bus1=486c4420-a93c-4793-8fee-92bb4e3f6c8b.1.2.3 Bus2=41ba0b4f-87ad-492e-b9fb-2b283e689571.1.2.3 LineCode=3p_ug_al_3_3 Length=150.00001046164024 Phases=3 Units=m
new Line.7e3a38a9-c0b8-499e-aede-f94620429fdb Bus1=a8200e82-da3c-4729-ae6d-d48081aa6c3a.1.2.3 Bus2=9114e66f-a106-462e-926c-48a6fe17b5ce.1.2.3 LineCode=3p_ug_al_3_3 Length=69.3131375179527 Phases=3 Units=m
new Line.cce9322c-25b8-48a0-b5ca-9395bba79765 Bus1=9e1a569f-5918-48ff-84d5-50a341fb5b20.1.2.3 Bus2=de10576a-aa0f-4038-996c-4d5448b524f5.1.2.3 LineCode=3p_ug_al_3_3 Length=118.27812542398743 Phases=3 Units=m
new Line.481ad6e7-2a13-4957-8ea3-8580d42c0f76 Bus1=9e1a569f-5918-48ff-84d5-50a341fb5b20.1.2.3 Bus2=fde6c6f0-66f1-43ee-94bb-65c3f330bd74_ht.1.2.3 LineCode=3p_ug_al_3_3 Length=0.1438922940795006 Phases=3 Units=m
new Line.f8d339aa-97d8-49f7-aeb1-f322f95ac977 Bus1=19bd08d3-a3aa-4eb9-95a0-141db869b8b8.1.2.3 Bus2=902a2eb2-e22a-4f2e-9080-a017c7b9ea32.1.2.3 LineCode=3p_ug_al_3_3 Length=52.50329937396807 Phases=3 Units=m
new Line.6c496e46-9dce-4f1b-9eae-8b601db9857d Bus1=19bd08d3-a3aa-4eb9-95a0-141db869b8b8.1.2.3 Bus2=18df96d8-a15c-4473-95ae-8731c654a42a_ht.1.2.3 LineCode=3p_ug_al_3_3 Length=0.1438940698602004 Phases=3 Units=m
new Line.d5103536-fbdc-4d6d-b4a2-a2215cfc915c Bus1=295498746.1.2.3 Bus2=d65c1dd3-bd70-4490-9bc9-5c2da8f7e82c.1.2.3 LineCode=3p_ug_al_3_3 Length=4.845498675155194 Phases=3 Units=m
new Line.d71bbcfe-e662-4056-9991-e39b4ea0f57c Bus1=f078b90d-1b3b-4f3c-9ce8-7191e1c0f8a1.1.2.3 Bus2=8d61ce66-3ce3-48f6-8819-7aacd2c1c768_ht.1.2.3 LineCode=3p_ug_al_3_3 Length=0.14389575715500078 Phases=3 Units=m
new Line.edc4e8d5-e661-4d05-8f35-b2a75b9c377a Bus1=29d18c94-50cc-4374-ab66-ee83ee1e45e7.1.2.3 Bus2=113913040.1.2.3 LineCode=3p_ug_al_3_3 Length=1.0000082333742815 Phases=3 Units=m
new Line.4d9547ea-a18c-433c-8497-a7c6ae24d23f Bus1=41ba0b4f-87ad-492e-b9fb-2b283e689571.1.2.3 Bus2=29d18c94-50cc-4374-ab66-ee83ee1e45e7.1.2.3 LineCode=3p_ug_al_3_3 Length=150.0008250561168 Phases=3 Units=m
new Line.7f40fedb-c96a-490e-9065-c45f594cde1d Bus1=67086850-524a-4c64-b12d-a31a9e3279e5.1.2.3 Bus2=dae7b755-4e43-4d99-abba-eebd2682834e.1.2.3 LineCode=3p_ug_al_3_3 Length=1.0000017070282707 Phases=3 Units=m
new Line.5bf5faf5-24de-4138-a22d-ba16e754e3cc Bus1=67086850-524a-4c64-b12d-a31a9e3279e5.1.2.3 Bus2=ff4e789f-8cc0-412d-801f-775a88fd5d87_ht.1.2.3 LineCode=3p_ug_al_3_3 Length=0.14389462342132725 Phases=3 Units=m
